L6/1726534/Chaves.dss
! ==========================================================
! CHAVES — geradas de UNSEMT (Line com Switch=Y)
! ==========================================================
! 23 chave(s) omitida(s): os dois PACs fora da rede de MT deste alimentador, o que criaria ilha flutuante — ex.: 460281135, 477475821, 477943843
New Line.1929268530 Phases=1 Bus1=node_2246569517.3 Bus2=node_2246569518.3 Switch=Y r1=1e-4 x1=1e-4 r0=1e-4 x0=1e-4 normamps=9999
New Line.1883794999 Phases=1 Bus1=node_2177414451.3 Bus2=node_2177414493.3 Switch=Y r1=1e-4 x1=1e-4 r0=1e-4 x0=1e-4 normamps=9999
New Line.1965192102 Phases=1 Bus1=node_2283283162.3 Bus2=node_2283283163.3 Switch=Y r1=1e-4 x1=1e-4 r0=1e-4 x0=1e-4 normamps=9999
New Line.1922921922 Phases=1 Bus1=100_1922921938.2 Bus2=100_1922921937.2 Switch=Y r1=1e-4 x1=1e-4 r0=1e-4 x0=1e-4 normamps=9999
New Line.349257830 Phases=1 Bus1=100_349257844.3 Bus2=100_349257843.3 Switch=Y r1=1e-4 x1=1e-4 r0=1e-4 x0=1e-4 normamps=9999
New Line.349257078 Phases=1 Bus1=100_349257091.1 Bus2=100_349257092.1 Switch=Y r1=1e-4 x1=1e-4 r0=1e-4 x0=1e-4 normamps=9999
New Line.349257152 Phases=1 Bus1=100_349257166.1 Bus2=100_349257165.1 Switch=Y r1=1e-4 x1=1e-4 r0=1e-4 x0=1e-4 normamps=9999
New Line.1459985837 Phases=1 Bus1=node_1757371206.1 Bus2=node_1757371207.1 Switch=Y r1=1e-4 x1=1e-4 r0=1e-4 x0=1e-4 normamps=9999
New Line.1415951337 Phases=3 Bus1=node_1712830214.1.2.3 Bus2=node_1712830215.1.2.3 Switch=Y r1=1e-4 x1=1e-4 r0=1e-4 x0=1e-4 normamps=9999
New Line.1434698586 Phases=1 Bus1=node_1749951359.3 Bus2=node_1749951360.3 Switch=Y r1=1e-4 x1=1e-4 r0=1e-4 x0=1e-4 normamps=9999
New Line.1421837953 Phases=1 Bus1=node_1718514810.2 Bus2=node_1718514811.2 Switch=Y r1=1e-4 x1=1e-4 r0=1e-4 x0=1e-4 normamps=9999
New Line.345585541 Phases=1 Bus1=node_539621440.1 Bus2=node_539621441.1 Switch=Y r1=1e-4 x1=1e-4 r0=1e-4 x0=1e-4 normamps=9999
New Line.1440078980 Phases=1 Bus1=node_1736313671.2 Bus2=node_1736313672.2 Switch=Y r1=1e-4 x1=1e-4 r0=1e-4 x0=1e-4 normamps=9999
New Line.1491280653 Phases=3 Bus1=node_1799083366.1.2.3 Bus2=node_1799083367.1.2.3 Switch=Y r1=1e-4 x1=1e-4 r0=1e-4 x0=1e-4 normamps=9999
New Line.2530690436 Phases=1 Bus1=node_2629843390.2 Bus2=node_2629843465.2 Switch=Y r1=1e-4 x1=1e-4 r0=1e-4 x0=1e-4 normamps=9999
New Line.2679683883 Phases=1 Bus1=node_2853573953.1 Bus2=node_2853574038.1 Switch=Y r1=1e-4 x1=1e-4 r0=1e-4 x0=1e-4 normamps=9999
New Line.2672409786 Phases=3 Bus1=node_2844526483.1.2.3 Bus2=node_2844526534.1.2.3 Switch=Y r1=1e-4 x1=1e-4 r0=1e-4 x0=1e-4 normamps=9999
New Line.336288716 Phases=1 Bus1=node_2844526327.2 Bus2=node_2844526498.2 Switch=Y r1=1e-4 x1=1e-4 r0=1e-4 x0=1e-4 normamps=9999
New Line.339298126 Phases=3 Bus1=node_444295301.1.2.3 Bus2=node_2912246630.1.2.3 Switch=Y r1=1e-4 x1=1e-4 r0=1e-4 x0=1e-4 normamps=9999
New Line.1621418784 Phases=1 Bus1=node_1942137829.2 Bus2=node_1942137830.2 Switch=Y r1=1e-4 x1=1e-4 r0=1e-4 x0=1e-4 normamps=9999
New Line.1740864968 Phases=1 Bus1=node_2065955297.3 Bus2=node_2065955298.3 Switch=Y r1=1e-4 x1=1e-4 r0=1e-4 x0=1e-4 normamps=9999
New Line.1691213407 Phases=1 Bus1=node_2017055048.3 Bus2=node_2017055071.3 Switch=Y r1=1e-4 x1=1e-4 r0=1e-4 x0=1e-4 normamps=9999
New Line.345546162 Phases=1 Bus1=node_539555707.3 Bus2=node_539555708.3 Switch=Y r1=1e-4 x1=1e-4 r0=1e-4 x0=1e-4 normamps=9999
New Line.1700943621 Phases=1 Bus1=node_2026785311.3 Bus2=node_2026785312.3 Switch=Y r1=1e-4 x1=1e-4 r0=1e-4 x0=1e-4 normamps=9999
New Line.1546548733 Phases=1 Bus1=node_1866125684.1 Bus2=node_1866125685.1 Switch=Y r1=1e-4 x1=1e-4 r0=1e-4 x0=1e-4 normamps=9999
New Line.340210396 Phases=3 Bus1=node_534143654.1.2.3 Bus2=node_534143655.1.2.3 Switch=Y r1=1e-4 x1=1e-4 r0=1e-4 x0=1e-4 normamps=9999
New Line.340531355 Phases=3 Bus1=node_534496392.1.2.3 Bus2=node_534496391.1.2.3 Switch=Y r1=1e-4 x1=1e-4 r0=1e-4 x0=1e-4 normamps=9999
New Line.341574797 Phases=1 Bus1=node_535204942.3 Bus2=node_535204943.3 Switch=Y r1=1e-4 x1=1e-4 r0=1e-4 x0=1e-4 normamps=9999
New Line.341214931 Phases=1 Bus1=node_534684256.2 Bus2=node_534684257.2 Switch=Y r1=1e-4 x1=1e-4 r0=1e-4 x0=1e-4 normamps=9999
New Line.339770323 Phases=1 Bus1=node_533906343.2 Bus2=node_533906344.2 Switch=Y r1=1e-4 x1=1e-4 r0=1e-4 x0=1e-4 normamps=9999
New Line.339297285 Phases=3 Bus1=node_533667352.1.2.3 Bus2=node_533667353.1.2.3 Switch=Y r1=1e-4 x1=1e-4 r0=1e-4 x0=1e-4 normamps=9999
New Line.337929932 Phases=3 Bus1=node_532864143.1.2.3 Bus2=node_532864144.1.2.3 Switch=Y r1=1e-4 x1=1e-4 r0=1e-4 x0=1e-4 normamps=9999
New Line.364720738 Phases=3 Bus1=node_561401114.1.2.3 Bus2=node_561401115.1.2.3 Switch=Y r1=1e-4 x1=1e-4 r0=1e-4 x0=1e-4 normamps=9999
New Line.340210306 Phases=3 Bus1=node_534027528.1.2.3 Bus2=node_534027529.1.2.3 Switch=Y r1=1e-4 x1=1e-4 r0=1e-4 x0=1e-4 normamps=9999
New Line.340210275 Phases=3 Bus1=node_534027471.1.2.3 Bus2=node_534027472.1.2.3 Switch=Y r1=1e-4 x1=1e-4 r0=1e-4 x0=1e-4 normamps=9999
New Line.340529870 Phases=1 Bus1=node_534423855.1 Bus2=node_534423856.1 Switch=Y r1=1e-4 x1=1e-4 r0=1e-4 x0=1e-4 normamps=9999
New Line.341841244 Phases=1 Bus1=node_2559710690.1 Bus2=node_2559710691.1 Switch=Y r1=1e-4 x1=1e-4 r0=1e-4 x0=1e-4 normamps=9999
New Line.340210285 Phases=3 Bus1=node_534027489.1.2.3 Bus2=node_534027490.1.2.3 Switch=Y r1=1e-4 x1=1e-4 r0=1e-4 x0=1e-4 normamps=9999
New Line.340210363 Phases=3 Bus1=node_534143580.1.2.3 Bus2=node_534143579.1.2.3 Switch=Y r1=1e-4 x1=1e-4 r0=1e-4 x0=1e-4 normamps=9999
New Line.340529386 Phases=1 Bus1=node_534349499.3 Bus2=node_534349500.3 Switch=Y r1=1e-4 x1=1e-4 r0=1e-4 x0=1e-4 normamps=9999
New Line.341841473 Phases=1 Bus1=node_535206100.2 Bus2=node_535206101.2 Switch=Y r1=1e-4 x1=1e-4 r0=1e-4 x0=1e-4 normamps=9999
New Line.336286957 Phases=3 Bus1=node_532297988.1.2.3 Bus2=node_532297989.1.2.3 Switch=Y r1=1e-4 x1=1e-4 r0=1e-4 x0=1e-4 normamps=9999
New Line.339295280 Phases=1 Bus1=node_533456090.2 Bus2=node_533456091.2 Switch=Y r1=1e-4 x1=1e-4 r0=1e-4 x0=1e-4 normamps=9999
New Line.341215545 Phases=1 Bus1=node_534793232.2 Bus2=node_534793233.2 Switch=Y r1=1e-4 x1=1e-4 r0=1e-4 x0=1e-4 normamps=9999
New Line.338404876 Phases=1 Bus1=node_533198010.3 Bus2=node_533198011.3 Switch=Y r1=1e-4 x1=1e-4 r0=1e-4 x0=1e-4 normamps=9999
New Line.339296339 Phases=1 Bus1=node_533553282.3 Bus2=node_533553283.3 Switch=Y r1=1e-4 x1=1e-4 r0=1e-4 x0=1e-4 normamps=9999
New Line.340970751 Phases=3 Bus1=node_534499029.1.2.3 Bus2=node_534499030.1.2.3 Switch=Y r1=1e-4 x1=1e-4 r0=1e-4 x0=1e-4 normamps=9999
New Line.339297139 Phases=3 Bus1=node_533667034.1.2.3 Bus2=node_533667035.1.2.3 Switch=Y r1=1e-4 x1=1e-4 r0=1e-4 x0=1e-4 normamps=9999
New Line.2432736756 Phases=3 Bus1=node_2604827799.1.2.3 Bus2=node_2604828371.1.2.3 Switch=Y r1=1e-4 x1=1e-4 r0=1e-4 x0=1e-4 normamps=9999
New Line.337409597 Phases=3 Bus1=node_532724692.1.2.3 Bus2=node_532724693.1.2.3 Switch=Y r1=1e-4 x1=1e-4 r0=1e-4 x0=1e-4 normamps=9999
New Line.339296410 Phases=3 Bus1=node_533553495.1.2.3 Bus2=node_533553496.1.2.3 Switch=Y r1=1e-4 x1=1e-4 r0=1e-4 x0=1e-4 normamps=9999
New Line.340211945 Phases=3 Bus1=node_534146519.1.2.3 Bus2=node_534146520.1.2.3 Switch=Y r1=1e-4 x1=1e-4 r0=1e-4 x0=1e-4 normamps=9999
New Line.1639396237 Phases=1 Bus1=node_1959389449.2 Bus2=node_1959389450.2 Switch=Y r1=1e-4 x1=1e-4 r0=1e-4 x0=1e-4 normamps=9999
New Line.1719330532 Phases=1 Bus1=node_2045344036.3 Bus2=node_2045344037.3 Switch=Y r1=1e-4 x1=1e-4 r0=1e-4 x0=1e-4 normamps=9999
New Line.1728983430 Phases=1 Bus1=node_2055009724.1 Bus2=node_2055009725.1 Switch=Y r1=1e-4 x1=1e-4 r0=1e-4 x0=1e-4 normamps=9999
New Line.345521078 Phases=1 Bus1=node_539460081.3 Bus2=node_539460082.3 Switch=Y r1=1e-4 x1=1e-4 r0=1e-4 x0=1e-4 normamps=9999
New Line.1655203961 Phases=1 Bus1=node_1975901448.3 Bus2=node_1975901449.3 Switch=Y r1=1e-4 x1=1e-4 r0=1e-4 x0=1e-4 normamps=9999
New Line.338969527 Phases=3 Bus1=node_533301235.1.2.3 Bus2=node_533301236.1.2.3 Switch=Y r1=1e-4 x1=1e-4 r0=1e-4 x0=1e-4 normamps=9999
New Line.341842340 Phases=3 Bus1=node_535208357.1.2.3 Bus2=node_535208358.1.2.3 Switch=Y r1=1e-4 x1=1e-4 r0=1e-4 x0=1e-4 normamps=9999
New Line.337409127 Phases=3 Bus1=node_532723378.1.2.3 Bus2=node_532723379.1.2.3 Switch=Y r1=1e-4 x1=1e-4 r0=1e-4 x0=1e-4 normamps=9999
New Line.336286967 Phases=3 Bus1=node_532298006.1.2.3 Bus2=node_532298007.1.2.3 Switch=Y r1=1e-4 x1=1e-4 r0=1e-4 x0=1e-4 normamps=9999
New Line.339297225 Phases=3 Bus1=node_533667215.1.2.3 Bus2=node_533667214.1.2.3 Switch=Y r1=1e-4 x1=1e-4 r0=1e-4 x0=1e-4 normamps=9999
New Line.339297402 Phases=3 Bus1=node_533667596.1.2.3 Bus2=node_533667595.1.2.3 Switch=Y r1=1e-4 x1=1e-4 r0=1e-4 x0=1e-4 normamps=9999
New Line.337929943 Phases=3 Bus1=node_532864164.1.2.3 Bus2=node_532864165.1.2.3 Switch=Y r1=1e-4 x1=1e-4 r0=1e-4 x0=1e-4 normamps=9999
New Line.338405324 Phases=3 Bus1=node_533298025.1.2.3 Bus2=node_533298024.1.2.3 Switch=Y r1=1e-4 x1=1e-4 r0=1e-4 x0=1e-4 normamps=9999
New Line.341842508 Phases=3 Bus1=node_535316180.1.2.3 Bus2=node_535316179.1.2.3 Switch=Y r1=1e-4 x1=1e-4 r0=1e-4 x0=1e-4 normamps=9999
New Line.341842637 Phases=3 Bus1=node_535316460.1.2.3 Bus2=node_535316461.1.2.3 Switch=Y r1=1e-4 x1=1e-4 r0=1e-4 x0=1e-4 normamps=9999
New Line.338405422 Phases=3 Bus1=node_533298212.1.2.3 Bus2=node_533298213.1.2.3 Switch=Y r1=1e-4 x1=1e-4 r0=1e-4 x0=1e-4 normamps=9999
New Line.339770443 Phases=1 Bus1=node_533906655.3 Bus2=node_533906656.3 Switch=Y r1=1e-4 x1=1e-4 r0=1e-4 x0=1e-4 normamps=9999
New Line.340529842 Phases=3 Bus1=node_534423783.1.2.3 Bus2=node_534423784.1.2.3 Switch=Y r1=1e-4 x1=1e-4 r0=1e-4 x0=1e-4 normamps=9999
New Line.338405411 Phases=3 Bus1=node_533298191.1.2.3 Bus2=node_533298192.1.2.3 Switch=Y r1=1e-4 x1=1e-4 r0=1e-4 x0=1e-4 normamps=9999
New Line.340531365 Phases=3 Bus1=node_534496409.1.2.3 Bus2=node_534496410.1.2.3 Switch=Y r1=1e-4 x1=1e-4 r0=1e-4 x0=1e-4 normamps=9999
New Line.338404096 Phases=1 Bus1=node_533196000.3 Bus2=node_533196001.3 Switch=Y r1=1e-4 x1=1e-4 r0=1e-4 x0=1e-4 normamps=9999
New Line.337408468 Phases=1 Bus1=node_532554162.3 Bus2=node_532554163.3 Switch=Y r1=1e-4 x1=1e-4 r0=1e-4 x0=1e-4 normamps=9999
New Line.342006902 Phases=1 Bus1=node_535594879.3 Bus2=node_535594880.3 Switch=Y r1=1e-4 x1=1e-4 r0=1e-4 x0=1e-4 normamps=9999
New Line.337408920 Phases=1 Bus1=node_532722863.3 Bus2=node_532722864.3 Switch=Y r1=1e-4 x1=1e-4 r0=1e-4 x0=1e-4 normamps=9999
New Line.338405391 Phases=3 Bus1=node_533298155.1.2.3 Bus2=node_533298156.1.2.3 Switch=Y r1=1e-4 x1=1e-4 r0=1e-4 x0=1e-4 normamps=9999
New Line.336287084 Phases=3 Bus1=node_532298225.1.2.3 Bus2=node_532298226.1.2.3 Switch=Y r1=1e-4 x1=1e-4 r0=1e-4 x0=1e-4 normamps=9999
New Line.339770243 Phases=1 Bus1=node_533906115.2 Bus2=node_533906116.2 Switch=Y r1=1e-4 x1=1e-4 r0=1e-4 x0=1e-4 normamps=9999
New Line.340210295 Phases=3 Bus1=node_534027507.1.2.3 Bus2=node_534027508.1.2.3 Switch=Y r1=1e-4 x1=1e-4 r0=1e-4 x0=1e-4 normamps=9999
New Line.339295405 Phases=3 Bus1=node_533456417.1.2.3 Bus2=node_533456418.1.2.3 Switch=Y r1=1e-4 x1=1e-4 r0=1e-4 x0=1e-4 normamps=9999
New Line.448353741 Phases=1 Bus1=node_717527488.1 Bus2=node_717527489.1 Switch=Y r1=1e-4 x1=1e-4 r0=1e-4 x0=1e-4 normamps=9999
New Line.392828045 Phases=1 Bus1=node_428922069.2 Bus2=node_645611723.2 Switch=Y r1=1e-4 x1=1e-4 r0=1e-4 x0=1e-4 normamps=9999
New Line.349257950 Phases=1 Bus1=100_349257963.2 Bus2=100_349257964.2 Switch=Y r1=1e-4 x1=1e-4 r0=1e-4 x0=1e-4 normamps=9999
New Line.349257965 Phases=1 Bus1=100_349257963.2 Bus2=100_349257964.2 Switch=Y r1=1e-4 x1=1e-4 r0=1e-4 x0=1e-4 normamps=9999
New Line.480421412 Phases=3 Bus1=100_480421425.1.2.3 Bus2=100_480421424.1.2.3 Switch=Y r1=1e-4 x1=1e-4 r0=1e-4 x0=1e-4 normamps=9999
New Line.439641568 Phases=3 Bus1=100_439641586.1.2.3 Bus2=100_439641585.1.2.3 Switch=Y r1=1e-4 x1=1e-4 r0=1e-4 x0=1e-4 normamps=9999
New Line.477943798 Phases=3 Bus1=100_477943848.1.2.3 Bus2=segm_477943786.1.2.3 Switch=Y r1=1e-4 x1=1e-4 r0=1e-4 x0=1e-4 normamps=9999
New Line.477943836 Phases=3 Bus1=100_477943849.1.2.3 Bus2=100_477943848.1.2.3 Switch=Y r1=1e-4 x1=1e-4 r0=1e-4 x0=1e-4 normamps=9999
New Line.477943811 Phases=3 Bus1=100_477943849.1.2.3 Bus2=segm_477943792.1.2.3 Switch=Y r1=1e-4 x1=1e-4 r0=1e-4 x0=1e-4 normamps=9999
New Line.349257132 Phases=3 Bus1=100_349257131.1.2.3 Bus2=100_349257110.1.2.3 Switch=Y r1=1e-4 x1=1e-4 r0=1e-4 x0=1e-4 normamps=9999
New Line.340212044 Phases=3 Bus1=node_534146696.1.2.3 Bus2=node_534146697.1.2.3 Switch=Y r1=1e-4 x1=1e-4 r0=1e-4 x0=1e-4 normamps=9999
New Line.349257141 Phases=3 Bus1=100_349257131.1.2.3 Bus2=100_349257110.1.2.3 Switch=Y r1=1e-4 x1=1e-4 r0=1e-4 x0=1e-4 normamps=9999
New Line.480348372 Phases=1 Bus1=node_750411005.3 Bus2=node_750411006.3 Switch=Y r1=1e-4 x1=1e-4 r0=1e-4 x0=1e-4 normamps=9999
New Line.477475814 Phases=3 Bus1=100_477475826.1.2.3 Bus2=100_477475827.1.2.3 Switch=Y r1=1e-4 x1=1e-4 r0=1e-4 x0=1e-4 normamps=9999
New Line.477475789 Phases=3 Bus1=100_477475827.1.2.3 Bus2=segm_477475770.1.2.3 Switch=Y r1=1e-4 x1=1e-4 r0=1e-4 x0=1e-4 normamps=9999
New Line.460514634 Phases=1 Bus1=node_730199762.3 Bus2=node_730199763.3 Switch=Y r1=1e-4 x1=1e-4 r0=1e-4 x0=1e-4 normamps=9999
New Line.526710785 Phases=1 Bus1=node_796773571.1 Bus2=node_796773572.1 Switch=Y r1=1e-4 x1=1e-4 r0=1e-4 x0=1e-4 normamps=9999
New Line.577148083 Phases=1 Bus1=node_434634650.2 Bus2=node_2737786592.2 Switch=Y r1=1e-4 x1=1e-4 r0=1e-4 x0=1e-4 normamps=9999
New Line.724596103 Phases=3 Bus1=node_998382261.1.2.3 Bus2=node_998382322.1.2.3 Switch=Y r1=1e-4 x1=1e-4 r0=1e-4 x0=1e-4 normamps=9999
New Line.339297214 Phases=3 Bus1=node_533667194.1.2.3 Bus2=node_533667193.1.2.3 Switch=Y r1=1e-4 x1=1e-4 r0=1e-4 x0=1e-4 normamps=9999
New Line.349335171 Phases=3 Bus1=100_349335143.1.2.3 Bus2=segm_349335144.1.2.3 Switch=Y r1=1e-4 x1=1e-4 r0=1e-4 x0=1e-4 normamps=9999
New Line.349257539 Phases=3 Bus1=100_349257508.1.2.3 Bus2=100_349257529.1.2.3 Switch=Y r1=1e-4 x1=1e-4 r0=1e-4 x0=1e-4 normamps=9999
New Line.2645739976 Phases=1 Bus1=node_2807632891.1 Bus2=node_2807632921.1 Switch=Y r1=1e-4 x1=1e-4 r0=1e-4 x0=1e-4 normamps=9999
New Line.621440563 Phases=1 Bus1=node_888505957.2 Bus2=node_889742567.2 Switch=Y r1=1e-4 x1=1e-4 r0=1e-4 x0=1e-4 normamps=9999
New Line.340969910 Phases=3 Bus1=node_534497448.1.2.3 Bus2=node_534497449.1.2.3 Switch=Y r1=1e-4 x1=1e-4 r0=1e-4 x0=1e-4 normamps=9999
New Line.339298137 Phases=3 Bus1=node_533668990.1.2.3 Bus2=node_533668991.1.2.3 Switch=Y r1=1e-4 x1=1e-4 r0=1e-4 x0=1e-4 normamps=9999
New Line.341843135 Phases=3 Bus1=node_535317403.1.2.3 Bus2=node_535317404.1.2.3 Switch=Y r1=1e-4 x1=1e-4 r0=1e-4 x0=1e-4 normamps=9999
New Line.341217846 Phases=3 Bus1=node_534893157.1.2.3 Bus2=node_534893156.1.2.3 Switch=Y r1=1e-4 x1=1e-4 r0=1e-4 x0=1e-4 normamps=9999
New Line.337931001 Phases=3 Bus1=node_532866176.1.2.3 Bus2=node_532866175.1.2.3 Switch=Y r1=1e-4 x1=1e-4 r0=1e-4 x0=1e-4 normamps=9999
New Line.338968857 Phases=3 Bus1=node_533300000.1.2.3 Bus2=node_533299999.1.2.3 Switch=Y r1=1e-4 x1=1e-4 r0=1e-4 x0=1e-4 normamps=9999
New Line.341570778 Phases=3 Bus1=node_534894651.1.2.3 Bus2=node_534894652.1.2.3 Switch=Y r1=1e-4 x1=1e-4 r0=1e-4 x0=1e-4 normamps=9999
New Line.364330020 Phases=1 Bus1=node_561006878.3 Bus2=node_561006879.3 Switch=Y r1=1e-4 x1=1e-4 r0=1e-4 x0=1e-4 normamps=9999
New Line.341841979 Phases=1 Bus1=node_535207398.1 Bus2=node_535207399.1 Switch=Y r1=1e-4 x1=1e-4 r0=1e-4 x0=1e-4 normamps=9999
New Line.339296320 Phases=1 Bus1=node_533553225.2 Bus2=node_533553226.2 Switch=Y r1=1e-4 x1=1e-4 r0=1e-4 x0=1e-4 normamps=9999
New Line.340209436 Phases=1 Bus1=node_534025278.2 Bus2=node_534025279.2 Switch=Y r1=1e-4 x1=1e-4 r0=1e-4 x0=1e-4 normamps=9999
New Line.341841956 Phases=1 Bus1=node_535207341.1 Bus2=node_535207342.1 Switch=Y r1=1e-4 x1=1e-4 r0=1e-4 x0=1e-4 normamps=9999
New Line.341841722 Phases=1 Bus1=node_535206747.2 Bus2=node_535206748.2 Switch=Y r1=1e-4 x1=1e-4 r0=1e-4 x0=1e-4 normamps=9999
New Line.341218060 Phases=3 Bus1=node_534893546.1.2.3 Bus2=node_534893547.1.2.3 Switch=Y r1=1e-4 x1=1e-4 r0=1e-4 x0=1e-4 normamps=9999
New Line.340530598 Phases=3 Bus1=node_534425798.1.2.3 Bus2=node_534425799.1.2.3 Switch=Y r1=1e-4 x1=1e-4 r0=1e-4 x0=1e-4 normamps=9999
New Line.339297914 Phases=3 Bus1=node_533668591.1.2.3 Bus2=node_533668592.1.2.3 Switch=Y r1=1e-4 x1=1e-4 r0=1e-4 x0=1e-4 normamps=9999
New Line.339298157 Phases=3 Bus1=node_2494416153.1.2.3 Bus2=node_2494416154.1.2.3 Switch=Y r1=1e-4 x1=1e-4 r0=1e-4 x0=1e-4 normamps=9999
New Line.341843572 Phases=3 Bus1=node_2494416338.1.2.3 Bus2=node_2494416339.1.2.3 Switch=Y r1=1e-4 x1=1e-4 r0=1e-4 x0=1e-4 normamps=9999
New Line.341217708 Phases=3 Bus1=node_534892910.1.2.3 Bus2=node_534892911.1.2.3 Switch=Y r1=1e-4 x1=1e-4 r0=1e-4 x0=1e-4 normamps=9999
New Line.341218220 Phases=3 Bus1=node_534893838.1.2.3 Bus2=node_534893839.1.2.3 Switch=Y r1=1e-4 x1=1e-4 r0=1e-4 x0=1e-4 normamps=9999
New Line.341842305 Phases=3 Bus1=node_535208282.1.2.3 Bus2=node_535208283.1.2.3 Switch=Y r1=1e-4 x1=1e-4 r0=1e-4 x0=1e-4 normamps=9999
New Line.337930881 Phases=3 Bus1=node_532865960.1.2.3 Bus2=node_532865959.1.2.3 Switch=Y r1=1e-4 x1=1e-4 r0=1e-4 x0=1e-4 normamps=9999
New Line.339296593 Phases=3 Bus1=node_533553972.1.2.3 Bus2=node_533553973.1.2.3 Switch=Y r1=1e-4 x1=1e-4 r0=1e-4 x0=1e-4 normamps=9999
New Line.340209406 Phases=1 Bus1=node_534025200.3 Bus2=node_534025201.3 Switch=Y r1=1e-4 x1=1e-4 r0=1e-4 x0=1e-4 normamps=9999
New Line.339296223 Phases=3 Bus1=node_533553003.1.2.3 Bus2=node_533553004.1.2.3 Switch=Y r1=1e-4 x1=1e-4 r0=1e-4 x0=1e-4 normamps=9999
New Line.349257819 Phases=3 Bus1=100_349257788.1.2.3 Bus2=100_349257809.1.2.3 Switch=Y r1=1e-4 x1=1e-4 r0=1e-4 x0=1e-4 normamps=9999
New Line.349257391 Phases=3 Bus1=100_349257381.1.2.3 Bus2=100_349257360.1.2.3 Switch=Y r1=1e-4 x1=1e-4 r0=1e-4 x0=1e-4 normamps=9999
New Line.349257259 Phases=3 Bus1=100_349257228.1.2.3 Bus2=100_349257249.1.2.3 Switch=Y r1=1e-4 x1=1e-4 r0=1e-4 x0=1e-4 normamps=9999
New Line.336286000 Phases=3 Bus1=node_531170487.1.2.3 Bus2=node_531170488.1.2.3 Switch=Y r1=1e-4 x1=1e-4 r0=1e-4 x0=1e-4 normamps=9999
New Line.341841701 Phases=3 Bus1=node_535206708.1.2.3 Bus2=node_535206709.1.2.3 Switch=Y r1=1e-4 x1=1e-4 r0=1e-4 x0=1e-4 normamps=9999
New Line.341570743 Phases=3 Bus1=node_534894594.1.2.3 Bus2=node_534894595.1.2.3 Switch=Y r1=1e-4 x1=1e-4 r0=1e-4 x0=1e-4 normamps=9999
New Line.341570711 Phases=3 Bus1=node_436694445.1.2.3 Bus2=node_2699093451.1.2.3 Switch=Y r1=1e-4 x1=1e-4 r0=1e-4 x0=1e-4 normamps=9999
New Line.336288150 Phases=3 Bus1=node_532300223.1.2.3 Bus2=node_532300224.1.2.3 Switch=Y r1=1e-4 x1=1e-4 r0=1e-4 x0=1e-4 normamps=9999
New Line.340212003 Phases=3 Bus1=node_435287936.1.2.3 Bus2=node_534146622.1.2.3 Switch=Y r1=1e-4 x1=1e-4 r0=1e-4 x0=1e-4 normamps=9999
New Line.338968666 Phases=3 Bus1=node_533299634.1.2.3 Bus2=node_533299635.1.2.3 Switch=Y r1=1e-4 x1=1e-4 r0=1e-4 x0=1e-4 normamps=9999
New Line.339296397 Phases=1 Bus1=node_533553456.3 Bus2=node_533553457.3 Switch=Y r1=1e-4 x1=1e-4 r0=1e-4 x0=1e-4 normamps=9999
New Line.349257715 Phases=3 Bus1=100_349257684.1.2.3 Bus2=100_349257705.1.2.3 Switch=Y r1=1e-4 x1=1e-4 r0=1e-4 x0=1e-4 normamps=9999
New Line.340530218 Phases=1 Bus1=node_1525469284.2 Bus2=node_1525469285.2 Switch=Y r1=1e-4 x1=1e-4 r0=1e-4 x0=1e-4 normamps=9999
New Line.349257347 Phases=3 Bus1=100_349257316.1.2.3 Bus2=100_349257337.1.2.3 Switch=Y r1=1e-4 x1=1e-4 r0=1e-4 x0=1e-4 normamps=9999
New Line.349257495 Phases=3 Bus1=100_349257485.1.2.3 Bus2=100_349257464.1.2.3 Switch=Y r1=1e-4 x1=1e-4 r0=1e-4 x0=1e-4 normamps=9999
New Line.349257303 Phases=3 Bus1=100_349257272.1.2.3 Bus2=100_349257293.1.2.3 Switch=Y r1=1e-4 x1=1e-4 r0=1e-4 x0=1e-4 normamps=9999
New Line.349257583 Phases=3 Bus1=100_349257573.1.2.3 Bus2=100_349257552.1.2.3 Switch=Y r1=1e-4 x1=1e-4 r0=1e-4 x0=1e-4 normamps=9999
New Line.336285930 Phases=1 Bus1=node_531170289.2 Bus2=node_531170290.2 Switch=Y r1=1e-4 x1=1e-4 r0=1e-4 x0=1e-4 normamps=9999
New Line.340209396 Phases=3 Bus1=node_534025182.1.2.3 Bus2=node_534025183.1.2.3 Switch=Y r1=1e-4 x1=1e-4 r0=1e-4 x0=1e-4 normamps=9999
New Line.341570701 Phases=3 Bus1=node_534894522.1.2.3 Bus2=node_534894523.1.2.3 Switch=Y r1=1e-4 x1=1e-4 r0=1e-4 x0=1e-4 normamps=9999
New Line.336286243 Phases=3 Bus1=node_531171156.1.2.3 Bus2=node_531171157.1.2.3 Switch=Y r1=1e-4 x1=1e-4 r0=1e-4 x0=1e-4 normamps=9999
New Line.339298679 Phases=3 Bus1=node_533669981.1.2.3 Bus2=node_533669980.1.2.3 Switch=Y r1=1e-4 x1=1e-4 r0=1e-4 x0=1e-4 normamps=9999
New Line.340211955 Phases=3 Bus1=node_534146538.1.2.3 Bus2=node_534146537.1.2.3 Switch=Y r1=1e-4 x1=1e-4 r0=1e-4 x0=1e-4 normamps=9999
New Line.338968628 Phases=3 Bus1=node_533299556.1.2.3 Bus2=node_533299557.1.2.3 Switch=Y r1=1e-4 x1=1e-4 r0=1e-4 x0=1e-4 normamps=9999
New Line.340209525 Phases=3 Bus1=node_534025491.1.2.3 Bus2=node_534025492.1.2.3 Switch=Y r1=1e-4 x1=1e-4 r0=1e-4 x0=1e-4 normamps=9999
New Line.336288074 Phases=3 Bus1=node_532300083.1.2.3 Bus2=node_532300084.1.2.3 Switch=Y r1=1e-4 x1=1e-4 r0=1e-4 x0=1e-4 normamps=9999
New Line.341843109 Phases=3 Bus1=node_535317349.1.2.3 Bus2=node_535317350.1.2.3 Switch=Y r1=1e-4 x1=1e-4 r0=1e-4 x0=1e-4 normamps=9999
New Line.339296371 Phases=1 Bus1=node_533553378.2 Bus2=node_533553379.2 Switch=Y r1=1e-4 x1=1e-4 r0=1e-4 x0=1e-4 normamps=9999
New Line.340530960 Phases=3 Bus1=node_534426740.1.2.3 Bus2=node_534426741.1.2.3 Switch=Y r1=1e-4 x1=1e-4 r0=1e-4 x0=1e-4 normamps=9999
New Line.341216338 Phases=1 Bus1=node_534795278.1 Bus2=node_534795279.1 Switch=Y r1=1e-4 x1=1e-4 r0=1e-4 x0=1e-4 normamps=9999
New Line.341216863 Phases=1 Bus1=node_534891191.2 Bus2=node_534891192.2 Switch=Y r1=1e-4 x1=1e-4 r0=1e-4 x0=1e-4 normamps=9999
New Line.339298295 Phases=3 Bus1=node_533669286.1.2.3 Bus2=node_533669287.1.2.3 Switch=Y r1=1e-4 x1=1e-4 r0=1e-4 x0=1e-4 normamps=9999
New Line.336286017 Phases=3 Bus1=node_531170526.1.2.3 Bus2=node_531170527.1.2.3 Switch=Y r1=1e-4 x1=1e-4 r0=1e-4 x0=1e-4 normamps=9999
New Line.341844121 Phases=3 Bus1=node_535319261.1.2.3 Bus2=node_535319262.1.2.3 Switch=Y r1=1e-4 x1=1e-4 r0=1e-4 x0=1e-4 normamps=9999
New Line.339296333 Phases=1 Bus1=node_533553264.3 Bus2=node_533553265.3 Switch=Y r1=1e-4 x1=1e-4 r0=1e-4 x0=1e-4 normamps=9999
New Line.336287785 Phases=3 Bus1=node_532299552.1.2.3 Bus2=node_532299553.1.2.3 Switch=Y r1=1e-4 x1=1e-4 r0=1e-4 x0=1e-4 normamps=9999
New Line.2478574228 Phases=1 Bus1=node_2640797246.1 Bus2=node_2640797424.1 Switch=Y r1=1e-4 x1=1e-4 r0=1e-4 x0=1e-4 normamps=9999
New Line.340211342 Phases=3 Bus1=node_534145435.1.2.3 Bus2=node_534145436.1.2.3 Switch=Y r1=1e-4 x1=1e-4 r0=1e-4 x0=1e-4 normamps=9999
New Line.341216123 Phases=1 Bus1=node_534794728.3 Bus2=node_534794729.3 Switch=Y r1=1e-4 x1=1e-4 r0=1e-4 x0=1e-4 normamps=9999
New Line.339297924 Phases=3 Bus1=node_533668610.1.2.3 Bus2=node_533668609.1.2.3 Switch=Y r1=1e-4 x1=1e-4 r0=1e-4 x0=1e-4 normamps=9999
New Line.337409490 Phases=1 Bus1=node_532724407.2 Bus2=node_532724408.2 Switch=Y r1=1e-4 x1=1e-4 r0=1e-4 x0=1e-4 normamps=9999
New Line.336286028 Phases=1 Bus1=node_531170547.2 Bus2=node_531170548.2 Switch=Y r1=1e-4 x1=1e-4 r0=1e-4 x0=1e-4 normamps=9999
New Line.341217368 Phases=3 Bus1=node_534892282.1.2.3 Bus2=node_534892283.1.2.3 Switch=Y r1=1e-4 x1=1e-4 r0=1e-4 x0=1e-4 normamps=9999
New Line.338968655 Phases=3 Bus1=node_533299614.1.2.3 Bus2=node_533299613.1.2.3 Switch=Y r1=1e-4 x1=1e-4 r0=1e-4 x0=1e-4 normamps=9999
New Line.338405432 Phases=1 Bus1=node_533298230.2 Bus2=node_533298231.2 Switch=Y r1=1e-4 x1=1e-4 r0=1e-4 x0=1e-4 normamps=9999
New Line.337932032 Phases=1 Bus1=node_532997093.2 Bus2=node_532997094.2 Switch=Y r1=1e-4 x1=1e-4 r0=1e-4 x0=1e-4 normamps=9999
New Line.363987420 Phases=1 Bus1=node_560715961.3 Bus2=node_560715960.3 Switch=Y r1=1e-4 x1=1e-4 r0=1e-4 x0=1e-4 normamps=9999
New Line.338404632 Phases=1 Bus1=node_1876149523.3 Bus2=node_1876149524.3 Switch=Y r1=1e-4 x1=1e-4 r0=1e-4 x0=1e-4 normamps=9999
New Line.337930770 Phases=1 Bus1=node_532865737.3 Bus2=node_532865738.3 Switch=Y r1=1e-4 x1=1e-4 r0=1e-4 x0=1e-4 normamps=9999
New Line.363798526 Phases=1 Bus1=node_560266539.3 Bus2=node_560266540.3 Switch=Y r1=1e-4 x1=1e-4 r0=1e-4 x0=1e-4 normamps=9999
New Line.337930303 Phases=3 Bus1=node_532864850.1.2.3 Bus2=node_532864851.1.2.3 Switch=Y r1=1e-4 x1=1e-4 r0=1e-4 x0=1e-4 normamps=9999
New Line.340209389 Phases=1 Bus1=node_534025161.2 Bus2=node_534025162.2 Switch=Y r1=1e-4 x1=1e-4 r0=1e-4 x0=1e-4 normamps=9999
New Line.341842608 Phases=1 Bus1=node_535316398.2 Bus2=node_535316397.2 Switch=Y r1=1e-4 x1=1e-4 r0=1e-4 x0=1e-4 normamps=9999
New Line.340209382 Phases=1 Bus1=node_534025140.3 Bus2=node_534025141.3 Switch=Y r1=1e-4 x1=1e-4 r0=1e-4 x0=1e-4 normamps=9999
New Line.341841771 Phases=1 Bus1=node_535206882.3 Bus2=node_535206883.3 Switch=Y r1=1e-4 x1=1e-4 r0=1e-4 x0=1e-4 normamps=9999
New Line.336286060 Phases=1 Bus1=node_531170643.2 Bus2=node_531170644.2 Switch=Y r1=1e-4 x1=1e-4 r0=1e-4 x0=1e-4 normamps=9999
New Line.341841742 Phases=1 Bus1=node_535206807.3 Bus2=node_535206808.3 Switch=Y r1=1e-4 x1=1e-4 r0=1e-4 x0=1e-4 normamps=9999
New Line.339296403 Phases=1 Bus1=node_533553474.3 Bus2=node_533553475.3 Switch=Y r1=1e-4 x1=1e-4 r0=1e-4 x0=1e-4 normamps=9999
New Line.337409430 Phases=1 Bus1=node_532724239.2 Bus2=node_532724240.2 Switch=Y r1=1e-4 x1=1e-4 r0=1e-4 x0=1e-4 normamps=9999
New Line.341216129 Phases=3 Bus1=node_534794746.1.2.3 Bus2=node_534794747.1.2.3 Switch=Y r1=1e-4 x1=1e-4 r0=1e-4 x0=1e-4 normamps=9999
New Line.340211933 Phases=3 Bus1=node_534146501.1.2.3 Bus2=node_534146502.1.2.3 Switch=Y r1=1e-4 x1=1e-4 r0=1e-4 x0=1e-4 normamps=9999
New Line.337931011 Phases=3 Bus1=node_532866194.1.2.3 Bus2=node_532866193.1.2.3 Switch=Y r1=1e-4 x1=1e-4 r0=1e-4 x0=1e-4 normamps=9999
New Line.338968648 Phases=1 Bus1=node_533299593.2 Bus2=node_533299592.2 Switch=Y r1=1e-4 x1=1e-4 r0=1e-4 x0=1e-4 normamps=9999
New Line.340210672 Phases=3 Bus1=node_534144186.1.2.3 Bus2=node_534144187.1.2.3 Switch=Y r1=1e-4 x1=1e-4 r0=1e-4 x0=1e-4 normamps=9999
New Line.337409471 Phases=1 Bus1=node_532724350.3 Bus2=node_532724351.3 Switch=Y r1=1e-4 x1=1e-4 r0=1e-4 x0=1e-4 normamps=9999
New Line.336288757 Phases=1 Bus1=node_532301364.2 Bus2=node_532301365.2 Switch=Y r1=1e-4 x1=1e-4 r0=1e-4 x0=1e-4 normamps=9999
New Line.339296427 Phases=1 Bus1=node_533553534.3 Bus2=node_533553535.3 Switch=Y r1=1e-4 x1=1e-4 r0=1e-4 x0=1e-4 normamps=9999
New Line.341842937 Phases=1 Bus1=node_535317015.1 Bus2=node_535317016.1 Switch=Y r1=1e-4 x1=1e-4 r0=1e-4 x0=1e-4 normamps=9999
New Line.339297634 Phases=1 Bus1=node_533668061.2 Bus2=node_533668062.2 Switch=Y r1=1e-4 x1=1e-4 r0=1e-4 x0=1e-4 normamps=9999
New Line.340209369 Phases=1 Bus1=node_534025101.2 Bus2=node_534025102.2 Switch=Y r1=1e-4 x1=1e-4 r0=1e-4 x0=1e-4 normamps=9999
...
